I"Þ/Users/kurt/Development/learn_work%20/mod-2/rails-dynamic-request-readme-nyc-web-060418/app/assets/stylesheets/application.css?type=text/css&pipeline=self&id=dc9eee4d9b34bb744bad7d2d83af84fc90a0d83702809c206d617949e19ab6f8:ET