[o:Set:
@hash}I"environment-version:ETTI"environment-paths;TTI"rails-env;TTI"0processors:type=text/css&file_type=text/css;TTI"Œfile-digest:///Users/kurt/Development/learn_work%20/mod-2/rails-dynamic-request-readme-nyc-web-060418/app/assets/stylesheets/application.css;TTI">processors:type=text/css&file_type=text/css&pipeline=self;TTI"|file-digest:///Users/kurt/Development/learn_work%20/mod-2/rails-dynamic-request-readme-nyc-web-060418/app/assets/stylesheets;TTF