I"Ð/Users/kurt/Development/learn_work%20/mod-2/rails-dynamic-request-readme-nyc-web-060418/app/assets/stylesheets/application.css?type=text/css&id=3d4ad5f7077e2942add259e907a96ecfd7f6c13291d8d1c547f10d7a3fe395e7:ET