I"ë/Users/kurt/Development/learn_work%20/mod-2/rails-dynamic-request-readme-nyc-web-060418/app/assets/javascripts/application.js?type=application/javascript&pipeline=self&id=7c51fb2da48893dfedaea2be4678d38614b03d2c6366d671f1de0e0c0d8ac754:ET