I"Ý/Users/kurt/Development/learn_work%20/mod-2/rails-dynamic-request-readme-nyc-web-060418/app/assets/javascripts/application.js?type=application/javascript&id=83225edd3fec837f2d404be794f6adef47a7a6064d7d38245f211f1dcf47d770:ET